Pcp_File_Version=4
*** BLOCK I: ATMOSPHERIC INFORMATION  **********************************
   MaxAL                    (MaxAL = number of atmospheric data-records)
   6601
 DailyVar  SinusVar  lLay  lBCCycles lInterc lDummy  lDummy  lDummy  lDummy  lDummy
       f       f       f       f       f       f       f       f       f       f
 hCritS                 (max. allowed pressure head at the soil surface)
      0
       tAtm        Prec       rSoil       rRoot      hCritA          rB          hB          ht    RootDepth
    1.99985           0           0           0      1024.1           0           0           0 
     2.9997           0           0           0      3071.8           0           0           0 
    3.99955           0           0           0      3070.5           0           0           0 
    4.99939           0           0           0      3069.7           0           0           0 
    5.99924           0           0           0      3069.5           0           0           0 
    6.99909           0           0           0      3070.2           0           0           0 
    7.99894         0.2           0           0      3071.6           0           0           0 
    8.99879           0  0.00882179 0.000178212      3073.8           0           0           0 
    9.99864           0   0.0382277 0.000772252      3074.8           0           0           0 
    10.9985           0   0.0970396  0.00196033       30746           0           0           0 
    11.9983           0    0.173495  0.00350484      3073.8           0           0           0 
    12.9982           0    0.241129  0.00487113     3062.93           0           0           0 
     13.998           0    0.240569  0.00485981     3052.06           0           0           0 
    14.9979           0    0.240009  0.00484849     3041.19           0           0           0 
    15.9977           0    0.239449  0.00483718     3030.32           0           0           0 
    16.9976           0    0.238888  0.00482587     3019.45           0           0           0 
    17.9974           0    0.238328  0.00481455     3008.58           0           0           0 
    18.9973           0    0.237768  0.00480323     2997.71           0           0           0 
    19.9971           0    0.237208  0.00479192     2986.84           0           0           0 
     20.997           0    0.236648  0.00478061     2975.97           0           0           0 
    21.9968           0    0.236088  0.00476929      2965.1           0           0           0 
    22.9967           0    0.235528  0.00475797     2954.23           0           0           0 
    23.9965           0    0.234968  0.00474666     2943.36           0           0           0 
    24.9964           0    0.234408  0.00473535     2932.49           0           0           0 
    25.9962           0    0.233847  0.00472403     2921.61           0           0           0 
    26.9961           0    0.233287  0.00471271     2910.74           0           0           0 
    27.9959           0    0.232727   0.0047014     2899.87           0           0           0 
    28.9958           0    0.232167  0.00469009        2889           0           0           0 
    29.9956           0    0.231607  0.00467877     2878.13           0           0           0 
    30.9955           0    0.231047  0.00466745     2867.26           0           0           0 
    31.9953           0    0.230487  0.00465614     2856.39           0           0           0 
    32.9952           0    0.229927  0.00464483     2845.52           0           0           0 
     33.995           0    0.229366  0.00463351     2834.65           0           0           0 
    34.9949           0    0.228806  0.00462219     2823.78           0           0           0 
    35.9947           0    0.228246  0.00461088     2812.91           0           0           0 
    36.9945           0    0.227686  0.00459957     2802.04           0           0           0 
    37.9944           0    0.227126  0.00458825     2791.17           0           0           0 
    38.9942           0    0.226566  0.00457693      2780.3           0           0           0 
    39.9941           0    0.226006  0.00456562     2769.43           0           0           0 
    40.9939           0    0.225446  0.00455431     2758.56           0           0           0 
    41.9938           0    0.224886  0.00454299     2747.69           0           0           0 
    42.9936           0    0.224325  0.00453167     2736.82           0           0           0 
    43.9935           0    0.223765  0.00452036     2725.95           0           0           0 
    44.9933           0    0.223205  0.00450905     2715.08           0           0           0 
    45.9932           0    0.222645  0.00449773     2704.21           0           0           0 
     46.993           0    0.222085  0.00448641     2693.34           0           0           0 
    47.9929           0    0.221525   0.0044751     2682.47           0           0           0 
    48.9927           0    0.220965  0.00446379      2671.6           0           0           0 
    49.9926           0    0.220405  0.00445247     2660.73           0           0           0 
    50.9924           0    0.219845  0.00444115     2649.86           0           0           0 
    51.9923           0    0.219284  0.00442984     2638.99           0           0           0 
    52.9921           0    0.218724  0.00441853     2628.11           0           0           0 
     53.992           0    0.218164  0.00440721     2617.24           0           0           0 
    54.9918           0    0.217604   0.0043959     2606.37           0           0           0 
    55.9917           0    0.217044  0.00438458      2595.5           0           0           0 
    56.9915           0    0.216484  0.00437326     2584.63           0           0           0 
    57.9914           0    0.215924  0.00436195     2573.76           0           0           0 
    58.9912           0    0.215364  0.00435064     2562.89           0           0           0 
    59.9911           0    0.214803  0.00433932     2552.02           0           0           0 
    60.9909           0    0.214243    0.004328     2541.15           0           0           0 
    61.9908           0    0.213683  0.00431669     2530.28           0           0           0 
    62.9906           0    0.213123  0.00430537     2519.41           0           0           0 
    63.9905           0    0.212563  0.00429406     2508.54           0           0           0 
    64.9903           0    0.212003  0.00428274     2497.67           0           0           0 
    65.9902           0    0.211443  0.00427143      2486.8           0           0           0 
      66.99           0    0.210883  0.00426011     2475.93           0           0           0 
    67.9899           0    0.210323   0.0042488     2465.06           0           0           0 
    68.9897           0    0.209762  0.00423748     2454.19           0           0           0 
    69.9895           0    0.209203  0.00422617     2443.32           0           0           0 
    70.9894           0    0.208642  0.00421485     2432.45           0           0           0 
    71.9892           0    0.208082  0.00420354     2421.58           0           0           0 
    72.9891           0    0.207522  0.00419222     2410.71           0           0           0 
    73.9889           0    0.206962  0.00418091     2399.84           0           0           0 
    74.9888           0    0.206402  0.00416959     2388.97           0           0           0 
    75.9886           0    0.205842  0.00415828      2378.1           0           0           0 
    76.9885           0    0.205282  0.00414696     2367.23           0           0           0 
    77.9883           0    0.204721  0.00413565     2356.36           0           0           0 
    78.9882           0    0.204161  0.00412434     2345.49           0           0           0 
     79.988           0    0.203601  0.00411302     2334.61           0           0           0 
    80.9879           0    0.203041   0.0041017     2323.74           0           0           0 
    81.9877           0    0.202481  0.00409039     2312.87           0           0           0 
    82.9876           0    0.201921  0.00407908        2302           0           0           0 
    83.9874           0    0.201361  0.00406776     2291.13           0           0           0 
    84.9873           0    0.200801  0.00405644     2280.26           0           0           0 
    85.9871           0     0.20024  0.00404513     2269.39           0           0           0 
     86.987           0    0.199681  0.00403382     2258.52           0           0           0 
    87.9868           0     0.19912   0.0040225     2247.65           0           0           0 
    88.9867           0     0.19856  0.00401118     2236.78           0           0           0 
    89.9865           0       0.198  0.00399987     2225.91           0           0           0 
    90.9864           0     0.19744  0.00398856     2215.04           0           0           0 
    91.9862           0     0.19688  0.00397724     2204.17           0           0           0 
    92.9861           0     0.19632  0.00396592      2193.3           0           0           0 
    93.9859           0     0.19576  0.00395461     2182.43           0           0           0 
    94.9858           0      0.1952   0.0039433     2171.56           0           0           0 
    95.9856           0     0.19464  0.00393198     2160.69           0           0           0 
    96.9855           0    0.194079  0.00392066     2149.82           0           0           0 
    97.9853           0    0.193519  0.00390935     2138.95           0           0           0 
    98.9852           0    0.192959  0.00389803     2128.95           0           0           0 
     99.985           0    0.192399  0.00388672     2128.08           0           0           0 
    100.985           0    0.191839   0.0038754     2117.21           0           0           0 
    101.985           0    0.191279  0.00386409     2106.34           0           0           0 
    102.985           0    0.190719  0.00385277     2095.47           0           0           0 
    103.984           0    0.190159  0.00384146      2084.6           0           0           0 
    104.984           0    0.189598  0.00383014     2073.73           0           0           0 
    105.984           0    0.189038  0.00381883     2062.86           0           0           0 
    106.984           0    0.188478  0.00380751     2051.99           0           0           0 
    107.984           0    0.187918   0.0037962     2041.11           0           0           0 
    108.984           0    0.187358  0.00378488     2030.24           0           0           0 
    109.983           0    0.186798  0.00377357     2019.37           0           0           0 
    110.983           0    0.186238  0.00376225      2008.5           0           0           0 
    111.983           0    0.185678  0.00375094     1997.63           0           0           0 
    112.983           0    0.185118  0.00373962     1986.76           0           0           0 
    113.983           0    0.184557  0.00372831     1975.89           0           0           0 
    114.983           0    0.183997  0.00371699     1965.02           0           0           0 
    115.983           0    0.183437  0.00370568     1954.15           0           0           0 
    116.982           0    0.182877  0.00369436     1943.28           0           0           0 
    117.982           0    0.182317  0.00368305     1932.41           0           0           0 
    118.982           0    0.181757  0.00367173     1921.54           0           0           0 
    119.982           0    0.181197  0.00366041     1910.67           0           0           0 
    120.982           0    0.180637   0.0036491      1899.8           0           0           0 
    121.982           0    0.180077  0.00363779     1888.93           0           0           0 
    122.982           0    0.179516  0.00362647     1878.06           0           0           0 
    123.981           0    0.178956  0.00361515     1867.19           0           0           0 
    124.981           0    0.178396  0.00360384     1856.32           0           0           0 
    125.981           0    0.177836  0.00359253     1845.45           0           0           0 
    126.981           0    0.177276  0.00358121     1834.58           0           0           0 
    127.981           0    0.176716  0.00356989     1823.71           0           0           0 
    128.981           0    0.176156  0.00355858     1812.84           0           0           0 
     129.98           0    0.175596  0.00354727     1801.97           0           0           0 
     130.98           0    0.175035  0.00353595      1791.1           0           0           0 
     131.98           0    0.174475  0.00352463     1780.23           0           0           0 
     132.98           0    0.173915  0.00351332     1769.36           0           0           0 
     133.98           0    0.173355  0.00350201     1758.49           0           0           0 
     134.98           0    0.172795  0.00349069     1747.61           0           0           0 
     135.98           0    0.172235  0.00347937     1736.74           0           0           0 
    136.979           0    0.171675  0.00346806     1725.87           0           0           0 
    137.979           0    0.171115  0.00345675        1715           0           0           0 
    138.979           0    0.170555  0.00344543     1704.13           0           0           0 
    139.979           0    0.169994  0.00343411     1693.26           0           0           0 
    140.979           0    0.169434   0.0034228     1682.39           0           0           0 
    141.979           0    0.168874  0.00341149     1671.52           0           0           0 
    142.978           0    0.168314  0.00340017     1660.65           0           0           0 
    143.978           0    0.167754  0.00338885     1649.78           0           0           0 
    144.978           0    0.167194  0.00337754     1638.91           0           0           0 
    145.978           0    0.166634  0.00336623     1628.04           0           0           0 
    146.978           0    0.166074  0.00335491     1617.17           0           0           0 
    147.978           0    0.165514  0.00334359      1606.3           0           0           0 
    148.978           0    0.164953  0.00333228     1595.43           0           0           0 
    149.977           0    0.164393  0.00332097     1584.56           0           0           0 
    150.977           0    0.163833  0.00330965     1573.69           0           0           0 
    151.977           0    0.163273  0.00329834     1562.82           0           0           0 
    152.977           0    0.162713  0.00328702     1551.95           0           0           0 
    153.977           0    0.162153  0.00327571     1541.08           0           0           0 
    154.977           0    0.161593  0.00326439     1530.21           0           0           0 
    155.977           0    0.161033  0.00325308     1519.34           0           0           0 
    156.976           0    0.160472  0.00324176     1508.47           0           0           0 
    157.976           0    0.159913  0.00323045      1497.6           0           0           0 
    158.976           0    0.159352  0.00321913     1486.73           0           0           0 
    159.976           0    0.158792  0.00320782     1475.86           0           0           0 
    160.976           0    0.158232   0.0031965     1464.99           0           0           0 
    161.976           0    0.157672  0.00318519     1454.11           0           0           0 
    162.975           0    0.157112  0.00317387     1443.24           0           0           0 
    163.975           0    0.156552  0.00316255     1432.37           0           0           0 
    164.975           0    0.155992  0.00315124      1421.5           0           0           0 
    165.975           0    0.155431  0.00313992     1410.63           0           0           0 
    166.975           0    0.154871  0.00312861     1399.76           0           0           0 
    167.975           0    0.154311  0.00311729     1388.89           0           0           0 
    168.975           0    0.153751  0.00310598     1378.02           0           0           0 
    169.974           0    0.153191  0.00309466     1367.15           0           0           0 
    170.974           0    0.152631  0.00308335     1356.28           0           0           0 
    171.974           0    0.152071  0.00307204     1345.41           0           0           0 
    172.974           0    0.151511  0.00306072     1334.54           0           0           0 
    173.974           0     0.15095   0.0030494     1323.67           0           0           0 
    174.974           0    0.150391  0.00303809      1312.8           0           0           0 
    175.973           0     0.14983  0.00302678     1301.93           0           0           0 
    176.973           0     0.14927  0.00301546     1291.06           0           0           0 
    177.973           0     0.14871  0.00300414     1280.19           0           0           0 
    178.973           0     0.14815  0.00299283     1269.32           0           0           0 
    179.973           0     0.14759  0.00298151     1258.45           0           0           0 
    180.973           0     0.14703   0.0029702     1247.58           0           0           0 
    181.973           0     0.14647  0.00295888     1236.71           0           0           0 
    182.972           0    0.145909  0.00294757     1225.84           0           0           0 
    183.972           0     0.14535  0.00293626     1214.97           0           0           0 
    184.972           0    0.144789  0.00292494      1204.1           0           0           0 
    185.972           0    0.144229  0.00291362     1193.23           0           0           0 
    186.972           0    0.143669  0.00290231     1182.36           0           0           0 
    187.972           0    0.143109    0.002891     1171.49           0           0           0 
    188.972           0    0.142549  0.00287968     1160.61           0           0           0 
    189.971           0    0.141989  0.00286836     1149.74           0           0           0 
    190.971           0    0.141429  0.00285705     1138.87           0           0           0 
    191.971           0    0.140869  0.00284574        1128           0           0           0 
    192.971           0    0.140308  0.00283442     1117.13           0           0           0 
    193.971           0    0.139748   0.0028231     1106.26           0           0           0 
    194.971           0    0.139188  0.00281179     1095.39           0           0           0 
     195.97           0    0.138628  0.00280048     1084.52           0           0           0 
     196.97           0    0.138068  0.00278916     1073.65           0           0           0 
     197.97           0    0.137508  0.00277784     1062.78           0           0           0 
     198.97           0    0.136948  0.00276653     1051.91           0           0           0 
     199.97           0    0.136388  0.00275522     1041.04           0           0           0 
     200.97           0    0.135828   0.0027439     1030.17           0           0           0 
     201.97           0    0.135267  0.00273258      1019.3           0           0           0 
    202.969           0   0.0235248 0.000475232      3058.6           0           0           0 
    203.969           0   0.0823367  0.00166331      3059.5           0           0           0 
    204.969           0    0.164673  0.00332662      3059.7           0           0           0 
    205.969           0    0.241129  0.00487113      3058.3           0           0           0 
    206.969           0    0.285238  0.00576219      3055.4           0           0           0 
    207.969           0    0.299941  0.00605921      3052.7           0           0           0 
    208.968           0    0.291119  0.00588099      3049.9           0           0           0 
    209.968           0    0.267594  0.00540576      3048.1           0           0           0 
    210.968           0    0.208782  0.00421768      3047.6           0           0           0 
    211.968           0    0.126446  0.00255437      3048.1           0           0           0 
    212.968           0   0.0588121  0.00118808      3049.5           0           0           0 
    213.968           0    0.029406  0.00059404      3051.5           0           0           0 
    214.968           0   0.0235248 0.000475232      3054.2           0           0           0 
    215.967           0   0.0176436 0.000356424      3056.5           0           0           0 
    216.967           0   0.0176436 0.000356424      3057.9           0           0           0 
    217.967           0   0.0176436 0.000356424      3058.4           0           0           0 
    218.967           0   0.0176436 0.000356424      3058.6           0           0           0 
    219.967           0   0.0323466 0.000653444      3060.8           0           0           0 
    220.967           0   0.0323466 0.000653444        3062           0           0           0 
    221.967           0   0.0176436 0.000356424      3061.4           0           0           0 
    222.966           0   0.0176436 0.000356424      3061.2           0           0           0 
    223.966           0   0.0176436 0.000356424      3062.4           0           0           0 
    224.966           0   0.0176436 0.000356424      3065.1           0           0           0 
    225.966           0   0.0176436 0.000356424      3067.7           0           0           0 
    226.966           0   0.0176436 0.000356424      3070.2           0           0           0 
    227.966           0   0.0323466 0.000653444      3072.6           0           0           0 
    228.965           0   0.0764554   0.0015445      3074.7           0           0           0 
    229.965           0    0.135267  0.00273258      3076.2           0           0           0 
    230.965           0    0.208782  0.00421768      3074.9           0           0           0 
    231.965           0    0.267594  0.00540576      3072.4           0           0           0 
    232.965           0    0.267594  0.00540576      3070.2           0           0           0 
    233.965           0    0.223485   0.0045147      3069.5           0           0           0 
    234.965           0    0.170555  0.00344543      3069.2           0           0           0 
    235.964           0    0.111743  0.00225735      3069.8           0           0           0 
    236.964           0   0.0529308  0.00106927      3072.1           0           0           0 
    237.964           0   0.0235248 0.000475232      3074.5           0           0           0 
    238.964           0   0.0176436 0.000356424      3077.3           0           0           0 
    239.964           0   0.0176436 0.000356424      3079.8           0           0           0 
    240.964           0   0.0176436 0.000356424        3081           0           0           0 
    241.963           0   0.0176436 0.000356424      3081.1           0           0           0 
    242.963           0   0.0176436 0.000356424      3081.1           0           0           0 
    243.963           0   0.0235248 0.000475232      3080.9           0           0           0 
    244.963           0    0.029406  0.00059404      3080.8           0           0           0 
    245.963           0   0.0235248 0.000475232      3080.9           0           0           0 
    246.963           0   0.0176436 0.000356424      3081.6           0           0           0 
    247.963           0   0.0176436 0.000356424        3083           0           0           0 
    248.962           0   0.0176436 0.000356424      3085.2           0           0           0 
    249.962           0   0.0176436 0.000356424      3088.6           0           0           0 
    250.962           0   0.0470496 0.000950464      3090.4           0           0           0 
    251.962           0    0.126446  0.00255437      3091.2           0           0           0 
    252.962           0    0.208782  0.00421768      3091.5           0           0           0 
    253.962           0    0.270535  0.00546517      3090.6           0           0           0 
    254.962           0    0.305822  0.00617801      3087.9           0           0           0 
    255.961           0    0.320525  0.00647503      3084.8           0           0           0 
    256.961           0    0.314644  0.00635623      3081.7           0           0           0 
    257.961           0    0.285238  0.00576219      3079.9           0           0           0 
    258.961           0    0.241129  0.00487113      3079.4           0           0           0 
    259.961           0    0.173495  0.00350484      3079.9           0           0           0 
    260.961           0    0.173495  0.00350484      3079.9           0           0           0 
     261.96           0   0.0911583  0.00184152      3081.2           0           0           0 
     262.96           0   0.0382277 0.000772252      3082.9           0           0           0 
     263.96           0    0.029406  0.00059404      3085.2           0           0           0 
     264.96           0    0.029406  0.00059404      3086.9           0           0           0 
     265.96           0    0.029406  0.00059404      3086.8           0           0           0 
     266.96           0    0.029406  0.00059404      3085.6           0           0           0 
     267.96           0    0.029406  0.00059404      3084.6           0           0           0 
    268.959           0    0.029406  0.00059404      3083.9           0           0           0 
    269.959           0   0.0235248 0.000475232      3083.1           0           0           0 
    270.959           0   0.0176436 0.000356424      3082.1           0           0           0 
    271.959           0   0.0176436 0.000356424      3080.9           0           0           0 
    272.959           0   0.0176436 0.000356424      3080.2           0           0           0 
    273.959           0   0.0176436 0.000356424      3080.2           0           0           0 
    274.958           0   0.0176436 0.000356424      3081.2           0           0           0 
    275.958           0   0.0382277 0.000772252      3083.4           0           0           0 
    276.958           0   0.0970396  0.00196033      3084.9           0           0           0 
    277.958           0    0.173495  0.00350484      3085.4           0           0           0 
    278.958           0    0.202901  0.00409887      3084.3           0           0           0 
    279.958           0    0.185258  0.00374245      3081.5           0           0           0 
    280.958           0    0.214664  0.00433649        3078           0           0           0 
    281.957           0     0.24701  0.00498993      3074.9           0           0           0 
    282.957           0    0.232307  0.00469291      3072.6           0           0           0 
    283.957           0    0.194079  0.00392066      3071.8           0           0           0 
    284.957           0    0.120564  0.00243556        3072           0           0           0 
    285.957           0   0.0470496 0.000950464      3072.5           0           0           0 
    286.957           0   0.0176436 0.000356424      3073.6           0           0           0 
    287.957           0   0.0176436 0.000356424        3075           0           0           0 
    288.956           0   0.0176436 0.000356424      3075.7           0           0           0 
    289.956           0   0.0176436 0.000356424        3076           0           0           0 
    290.956           0   0.0176436 0.000356424        3076           0           0           0 
    291.956           0   0.0176436 0.000356424        3075           0           0           0 
    292.956           0  0.00882179 0.000178212      3073.3           0           0           0 
    293.956           0           0           0      3071.5           0           0           0 
    294.955           0           0           0      3069.9           0           0           0 
    295.955           0           0           0      3068.8           0           0           0 
    296.955           0           0           0      3068.7           0           0           0 
    297.955           0           0           0      3069.5           0           0           0 
    298.955           0           0           0      3071.3           0           0           0 
    299.955           0   0.0235248 0.000475232      3072.9           0           0           0 
    300.955           0   0.0823367  0.00166331      3073.4           0           0           0 